* DRB160L-40 D model
* Date: 2008/10/02

.subckt DRB160L-40 A K
D1 A K DIODE
.MODEL DIODE D
+ IS=326.48E-9
+ N=1.0152
+ RS=73.896E-3
+ IKF=.47933
+ XTI=2
+ EG=.69
+ CJO=184.10E-12
+ M=.48271
+ VJ=.40489
+ ISR=131.68E-9
+ BV=40
+ TT=16.000E-9
.ends DRB160L-40