Version 4
SHEET 1 880 680
WIRE 400 48 -48 48
WIRE 720 48 592 48
WIRE 400 80 288 80
WIRE -48 176 -48 48
WIRE 400 176 -48 176
WIRE 720 176 592 176
WIRE 288 208 288 80
WIRE 288 208 192 208
WIRE 400 208 288 208
WIRE -48 224 -48 176
WIRE -48 352 -48 304
FLAG -48 352 0
FLAG 720 176 Y1
FLAG 720 48 Y2
SYMBOL voltage -48 208 R0
WINDOW 123 0 0 Left 2
WINDOW 39 0 0 Left 2
SYMATTR InstName V1
SYMATTR Value PULSE(0 10 0 1 1 0 2)
SYMBOL selector-on 144 208 R0
SYMATTR InstName X1
SYMBOL selector-element 496 64 R0
WINDOW 39 -116 46 Left 2
SYMATTR InstName X5
SYMATTR SpiceLine Vcenter=5, Vdelta=0.5
SYMBOL selector-element 496 192 R0
WINDOW 39 -115 49 Left 2
SYMATTR InstName X6
SYMATTR SpiceLine Vcenter=1, Vdelta=0.5
TEXT -80 376 Left 2 !.tran 0 2 0 1m
