Version 4
SHEET 1 880 728
WIRE 144 -160 -64 -160
WIRE 480 -160 272 -160
WIRE 768 -160 560 -160
WIRE -64 -128 -64 -160
WIRE 144 -128 -64 -128
WIRE 480 -128 272 -128
WIRE 768 -128 768 -160
WIRE 768 -128 560 -128
WIRE -64 -96 -64 -128
WIRE 144 -96 -64 -96
WIRE 480 -96 272 -96
WIRE 768 -96 768 -128
WIRE 768 -96 560 -96
WIRE -64 -64 -64 -96
WIRE 144 -64 -64 -64
WIRE 480 -64 272 -64
WIRE 768 -64 768 -96
WIRE 768 -64 560 -64
WIRE -64 -32 -64 -64
WIRE 144 -32 -64 -32
WIRE 480 -32 272 -32
WIRE 768 -32 768 -64
WIRE 768 -32 560 -32
WIRE -64 0 -64 -32
WIRE 144 0 -64 0
WIRE 480 0 272 0
WIRE 768 0 768 -32
WIRE 768 0 560 0
WIRE -64 32 -64 0
WIRE 144 32 -64 32
WIRE 480 32 272 32
WIRE 768 32 768 0
WIRE 768 32 560 32
WIRE -64 64 -64 32
WIRE 144 64 -64 64
WIRE 480 64 272 64
WIRE 768 64 768 32
WIRE 768 64 560 64
WIRE -64 96 -64 64
WIRE 144 96 -64 96
WIRE 480 96 272 96
WIRE 768 96 768 64
WIRE 768 96 560 96
WIRE -64 128 -64 96
WIRE 144 128 -64 128
WIRE 480 128 272 128
WIRE 768 128 768 96
WIRE 768 128 560 128
WIRE -64 160 -64 128
WIRE 144 160 -64 160
WIRE 480 160 272 160
WIRE 768 160 768 128
WIRE 768 160 560 160
WIRE -64 192 -64 160
WIRE 144 192 -64 192
WIRE 480 192 272 192
WIRE 768 192 768 160
WIRE 768 192 560 192
WIRE -64 224 -64 192
WIRE 144 224 -64 224
WIRE 480 224 272 224
WIRE 768 224 768 192
WIRE 768 224 560 224
WIRE -64 256 -64 224
WIRE 144 256 -64 256
WIRE 480 256 272 256
WIRE 768 256 768 224
WIRE 768 256 560 256
WIRE -64 288 -64 256
WIRE 144 288 -64 288
WIRE 480 288 272 288
WIRE 768 288 768 256
WIRE 768 288 560 288
WIRE -64 320 -64 288
WIRE 144 320 -64 320
WIRE 480 320 272 320
WIRE 768 320 768 288
WIRE 768 320 560 320
WIRE -64 352 -64 320
WIRE 144 352 -64 352
WIRE 480 352 272 352
WIRE 768 352 768 320
WIRE 768 352 560 352
WIRE -64 384 -64 352
WIRE 144 384 -64 384
WIRE 480 384 272 384
WIRE 768 384 768 352
WIRE 768 384 560 384
WIRE -64 416 -64 384
WIRE 144 416 -64 416
WIRE 480 416 272 416
WIRE 768 416 768 384
WIRE 768 416 560 416
WIRE -64 448 -64 416
WIRE 144 448 -64 448
WIRE 480 448 272 448
WIRE 768 448 768 416
WIRE 768 448 560 448
WIRE -64 480 -64 448
WIRE 144 480 -64 480
WIRE 480 480 272 480
WIRE 768 480 768 448
WIRE 768 480 560 480
WIRE -64 560 -64 480
WIRE 208 560 208 512
WIRE 768 560 768 480
WIRE -64 688 -64 640
WIRE 208 688 208 640
FLAG 208 688 0
FLAG -64 688 0
FLAG 768 560 0
SYMBOL DivModSwitch-21ch 208 192 R0
SYMATTR InstName X1
SYMBOL voltage 208 544 R0
WINDOW 123 0 0 Left 0
WINDOW 39 0 0 Left 0
SYMATTR InstName V1
SYMATTR Value PULSE(0 8096 0 8.096 8.096 0 16192)
SYMBOL voltage -64 544 R0
WINDOW 3 24 44 Left 2
WINDOW 123 0 0 Left 0
WINDOW 39 0 0 Left 0
SYMATTR InstName V2
SYMATTR Value 1
SYMBOL res 576 464 R90
WINDOW 0 0 56 VBottom 2
WINDOW 3 32 56 VTop 2
SYMATTR InstName R1
SYMATTR Value 10k
SYMBOL res 576 432 R90
WINDOW 0 0 56 VBottom 2
WINDOW 3 32 56 VTop 2
SYMATTR InstName R2
SYMATTR Value 10k
SYMBOL res 576 400 R90
WINDOW 0 0 56 VBottom 2
WINDOW 3 32 56 VTop 2
SYMATTR InstName R3
SYMATTR Value 10k
SYMBOL res 576 368 R90
WINDOW 0 0 56 VBottom 2
WINDOW 3 32 56 VTop 2
SYMATTR InstName R4
SYMATTR Value 10k
SYMBOL res 576 336 R90
WINDOW 0 0 56 VBottom 2
WINDOW 3 32 56 VTop 2
SYMATTR InstName R5
SYMATTR Value 10k
SYMBOL res 576 304 R90
WINDOW 0 0 56 VBottom 2
WINDOW 3 32 56 VTop 2
SYMATTR InstName R6
SYMATTR Value 10k
SYMBOL res 576 272 R90
WINDOW 0 0 56 VBottom 2
WINDOW 3 32 56 VTop 2
SYMATTR InstName R7
SYMATTR Value 10k
SYMBOL res 576 240 R90
WINDOW 0 0 56 VBottom 2
WINDOW 3 32 56 VTop 2
SYMATTR InstName R8
SYMATTR Value 10k
SYMBOL res 576 208 R90
WINDOW 0 0 56 VBottom 2
WINDOW 3 32 56 VTop 2
SYMATTR InstName R9
SYMATTR Value 10k
SYMBOL res 576 176 R90
WINDOW 0 0 56 VBottom 2
WINDOW 3 32 56 VTop 2
SYMATTR InstName R10
SYMATTR Value 10k
SYMBOL res 576 144 R90
WINDOW 0 0 56 VBottom 2
WINDOW 3 32 56 VTop 2
SYMATTR InstName R11
SYMATTR Value 10k
SYMBOL res 576 112 R90
WINDOW 0 0 56 VBottom 2
WINDOW 3 32 56 VTop 2
SYMATTR InstName R12
SYMATTR Value 10k
SYMBOL res 576 80 R90
WINDOW 0 0 56 VBottom 2
WINDOW 3 32 56 VTop 2
SYMATTR InstName R13
SYMATTR Value 10k
SYMBOL res 576 48 R90
WINDOW 0 0 56 VBottom 2
WINDOW 3 32 56 VTop 2
SYMATTR InstName R14
SYMATTR Value 10k
SYMBOL res 576 16 R90
WINDOW 0 0 56 VBottom 2
WINDOW 3 32 56 VTop 2
SYMATTR InstName R15
SYMATTR Value 10k
SYMBOL res 576 -16 R90
WINDOW 0 0 56 VBottom 2
WINDOW 3 32 56 VTop 2
SYMATTR InstName R16
SYMATTR Value 10k
SYMBOL res 576 -48 R90
WINDOW 0 0 56 VBottom 2
WINDOW 3 32 56 VTop 2
SYMATTR InstName R17
SYMATTR Value 10k
SYMBOL res 576 -80 R90
WINDOW 0 0 56 VBottom 2
WINDOW 3 32 56 VTop 2
SYMATTR InstName R18
SYMATTR Value 10k
SYMBOL res 576 -112 R90
WINDOW 0 0 56 VBottom 2
WINDOW 3 32 56 VTop 2
SYMATTR InstName R19
SYMATTR Value 10k
SYMBOL res 576 -144 R90
WINDOW 0 0 56 VBottom 2
WINDOW 3 32 56 VTop 2
SYMATTR InstName R20
SYMATTR Value 10k
SYMBOL res 576 -176 R90
WINDOW 0 0 56 VBottom 2
WINDOW 3 32 56 VTop 2
SYMATTR InstName R21
SYMATTR Value 10k
TEXT -98 712 Left 2 !.tran 0 40ms 0 1m
