Version 4
SHEET 1 988 680
WIRE -656 -2496 -768 -2496
WIRE -352 -2496 -528 -2496
WIRE -592 -2384 -592 -2464
WIRE -656 -2352 -768 -2352
WIRE -352 -2352 -528 -2352
WIRE -592 -2240 -592 -2320
WIRE -656 -2208 -768 -2208
WIRE -352 -2208 -528 -2208
WIRE -592 -2096 -592 -2176
WIRE -656 -2064 -768 -2064
WIRE -352 -2064 -528 -2064
WIRE -592 -1952 -592 -2032
WIRE -656 -1920 -768 -1920
WIRE -352 -1920 -528 -1920
WIRE -592 -1808 -592 -1888
WIRE -656 -1776 -768 -1776
WIRE -352 -1776 -528 -1776
WIRE -592 -1664 -592 -1744
WIRE -656 -1632 -768 -1632
WIRE -352 -1632 -528 -1632
WIRE -592 -1520 -592 -1600
WIRE -656 -1488 -768 -1488
WIRE -352 -1488 -528 -1488
WIRE -592 -1376 -592 -1456
WIRE -656 -1344 -768 -1344
WIRE -352 -1344 -528 -1344
WIRE -592 -1232 -592 -1312
WIRE -656 -1200 -768 -1200
WIRE -352 -1200 -528 -1200
WIRE -592 -1088 -592 -1168
WIRE -656 -1056 -768 -1056
WIRE -352 -1056 -528 -1056
WIRE -592 -944 -592 -1024
WIRE -656 -912 -768 -912
WIRE -352 -912 -528 -912
WIRE -592 -800 -592 -880
WIRE -656 -768 -768 -768
WIRE -352 -768 -528 -768
WIRE -592 -656 -592 -736
WIRE -656 -624 -768 -624
WIRE -352 -624 -528 -624
WIRE -592 -512 -592 -592
WIRE -656 -480 -768 -480
WIRE -352 -480 -528 -480
WIRE -592 -368 -592 -448
WIRE -656 -336 -768 -336
WIRE -352 -336 -528 -336
WIRE -592 -224 -592 -304
WIRE -656 -192 -768 -192
WIRE -352 -192 -528 -192
WIRE -592 -80 -592 -160
WIRE -656 -48 -768 -48
WIRE -352 -48 -528 -48
WIRE -592 64 -592 -16
WIRE -656 96 -768 96
WIRE -352 96 -528 96
WIRE -592 208 -592 128
WIRE -656 240 -768 240
WIRE -352 240 -528 240
WIRE -592 352 -592 272
WIRE -656 384 -768 384
WIRE -352 384 -528 384
WIRE -592 512 -592 416
WIRE -592 512 -768 512
FLAG -768 384 A0
IOPIN -768 384 BiDir
FLAG -768 512 IN
IOPIN -768 512 In
FLAG -352 384 B0
IOPIN -352 384 BiDir
FLAG -768 240 A1
IOPIN -768 240 BiDir
FLAG -352 240 B1
IOPIN -352 240 BiDir
FLAG -768 96 A2
IOPIN -768 96 BiDir
FLAG -352 96 B2
IOPIN -352 96 BiDir
FLAG -768 -48 A3
IOPIN -768 -48 BiDir
FLAG -352 -48 B3
IOPIN -352 -48 BiDir
FLAG -768 -192 A4
IOPIN -768 -192 BiDir
FLAG -352 -192 B4
IOPIN -352 -192 BiDir
FLAG -768 -336 A5
IOPIN -768 -336 BiDir
FLAG -352 -336 B5
IOPIN -352 -336 BiDir
FLAG -768 -480 A6
IOPIN -768 -480 BiDir
FLAG -352 -480 B6
IOPIN -352 -480 BiDir
FLAG -768 -624 A7
IOPIN -768 -624 BiDir
FLAG -352 -624 B7
IOPIN -352 -624 BiDir
FLAG -768 -768 A8
IOPIN -768 -768 BiDir
FLAG -352 -768 B8
IOPIN -352 -768 BiDir
FLAG -768 -912 A9
IOPIN -768 -912 BiDir
FLAG -352 -912 B9
IOPIN -352 -912 BiDir
FLAG -768 -1056 A10
IOPIN -768 -1056 BiDir
FLAG -352 -1056 B10
IOPIN -352 -1056 BiDir
FLAG -768 -1200 A11
IOPIN -768 -1200 BiDir
FLAG -352 -1200 B11
IOPIN -352 -1200 BiDir
FLAG -768 -1344 A12
IOPIN -768 -1344 BiDir
FLAG -352 -1344 B12
IOPIN -352 -1344 BiDir
FLAG -768 -1488 A13
IOPIN -768 -1488 BiDir
FLAG -352 -1488 B13
IOPIN -352 -1488 BiDir
FLAG -768 -1632 A14
IOPIN -768 -1632 BiDir
FLAG -352 -1632 B14
IOPIN -352 -1632 BiDir
FLAG -768 -1776 A15
IOPIN -768 -1776 BiDir
FLAG -352 -1776 B15
IOPIN -352 -1776 BiDir
FLAG -768 -1920 A16
IOPIN -768 -1920 BiDir
FLAG -352 -1920 B16
IOPIN -352 -1920 BiDir
FLAG -768 -2064 A17
IOPIN -768 -2064 BiDir
FLAG -352 -2064 B17
IOPIN -352 -2064 BiDir
FLAG -768 -2208 A18
IOPIN -768 -2208 BiDir
FLAG -352 -2208 B18
IOPIN -352 -2208 BiDir
FLAG -768 -2352 A19
IOPIN -768 -2352 BiDir
FLAG -352 -2352 B19
IOPIN -352 -2352 BiDir
FLAG -768 -2496 A20
IOPIN -768 -2496 BiDir
FLAG -352 -2496 B20
IOPIN -352 -2496 BiDir
SYMBOL DivModSwitch -544 400 M180
WINDOW 39 16 -28 Left 2
SYMATTR InstName X1
SYMATTR SpiceLine Ron={Ron} Roff={Roff}
SYMBOL DivModSwitch -544 256 M180
WINDOW 39 16 -28 Left 2
SYMATTR InstName X2
SYMATTR SpiceLine Ron={Ron} Roff={Roff}
SYMBOL DivModSwitch -544 112 M180
WINDOW 39 16 -28 Left 2
SYMATTR InstName X3
SYMATTR SpiceLine Ron={Ron} Roff={Roff}
SYMBOL DivModSwitch -544 -32 M180
WINDOW 39 16 -28 Left 2
SYMATTR InstName X4
SYMATTR SpiceLine Ron={Ron} Roff={Roff}
SYMBOL DivModSwitch -544 -176 M180
WINDOW 39 16 -28 Left 2
SYMATTR InstName X5
SYMATTR SpiceLine Ron={Ron} Roff={Roff}
SYMBOL DivModSwitch -544 -320 M180
WINDOW 39 16 -28 Left 2
SYMATTR InstName X6
SYMATTR SpiceLine Ron={Ron} Roff={Roff}
SYMBOL DivModSwitch -544 -464 M180
WINDOW 39 16 -28 Left 2
SYMATTR InstName X7
SYMATTR SpiceLine Ron={Ron} Roff={Roff}
SYMBOL DivModSwitch -544 -608 M180
WINDOW 39 16 -28 Left 2
SYMATTR InstName X8
SYMATTR SpiceLine Ron={Ron} Roff={Roff}
SYMBOL DivModSwitch -544 -752 M180
WINDOW 39 16 -28 Left 2
SYMATTR InstName X9
SYMATTR SpiceLine Ron={Ron} Roff={Roff}
SYMBOL DivModSwitch -544 -896 M180
WINDOW 39 16 -28 Left 2
SYMATTR InstName X10
SYMATTR SpiceLine Ron={Ron} Roff={Roff}
SYMBOL DivModSwitch -544 -1040 M180
WINDOW 39 16 -28 Left 2
SYMATTR InstName X11
SYMATTR SpiceLine Ron={Ron} Roff={Roff}
SYMBOL DivModSwitch -544 -1184 M180
WINDOW 39 16 -28 Left 2
SYMATTR InstName X12
SYMATTR SpiceLine Ron={Ron} Roff={Roff}
SYMBOL DivModSwitch -544 -1328 M180
WINDOW 39 16 -28 Left 2
SYMATTR InstName X13
SYMATTR SpiceLine Ron={Ron} Roff={Roff}
SYMBOL DivModSwitch -544 -1472 M180
WINDOW 39 16 -28 Left 2
SYMATTR InstName X14
SYMATTR SpiceLine Ron={Ron} Roff={Roff}
SYMBOL DivModSwitch -544 -1616 M180
WINDOW 39 16 -28 Left 2
SYMATTR InstName X15
SYMATTR SpiceLine Ron={Ron} Roff={Roff}
SYMBOL DivModSwitch -544 -1760 M180
WINDOW 39 16 -28 Left 2
SYMATTR InstName X16
SYMATTR SpiceLine Ron={Ron} Roff={Roff}
SYMBOL DivModSwitch -544 -1904 M180
WINDOW 39 16 -28 Left 2
SYMATTR InstName X17
SYMATTR SpiceLine Ron={Ron} Roff={Roff}
SYMBOL DivModSwitch -544 -2048 M180
WINDOW 39 16 -28 Left 2
SYMATTR InstName X18
SYMATTR SpiceLine Ron={Ron} Roff={Roff}
SYMBOL DivModSwitch -544 -2192 M180
WINDOW 39 16 -28 Left 2
SYMATTR InstName X19
SYMATTR SpiceLine Ron={Ron} Roff={Roff}
SYMBOL DivModSwitch -544 -2336 M180
WINDOW 39 16 -28 Left 2
SYMATTR InstName X20
SYMATTR SpiceLine Ron={Ron} Roff={Roff}
SYMBOL DivModSwitch -544 -2480 M180
WINDOW 39 16 -28 Left 2
SYMATTR InstName X21
SYMATTR SpiceLine Ron={Ron} Roff={Roff}
TEXT -216 -240 Left 2 !.param Ron=1u Roff=1G
