Version 4
SHEET 1 988 680
WIRE -80 -96 -208 -96
WIRE 112 0 -208 0
WIRE 352 0 192 0
WIRE -80 48 -80 -96
WIRE 128 80 128 48
WIRE 128 80 32 80
WIRE 176 160 176 48
WIRE -80 176 -80 112
WIRE -80 176 -208 176
FLAG 176 160 0
FLAG -208 0 A
IOPIN -208 0 BiDir
FLAG 352 0 B
IOPIN 352 0 BiDir
FLAG -208 176 IN
IOPIN -208 176 BiDir
FLAG -208 -96 DIV
IOPIN -208 -96 BiDir
SYMBOL DivMod -32 80 M180
WINDOW 39 64 -44 Left 2
SYMATTR SpiceLine BASE=2
SYMATTR InstName X1
SYMBOL sw 208 0 M270
SYMATTR InstName S1
TEXT -216 -264 Left 2 !.model SW SW( Ron={Ron}, Roff={Roff}, VT=0.5, VH=0.2 )
TEXT -216 -240 Left 2 !.param Ron=1u Roff=1G
