Version 4
SHEET 1 880 1012
WIRE -944 -1696 -1200 -1696
WIRE -112 -1696 -864 -1696
WIRE 128 -1696 128 -1824
WIRE 128 -1696 -32 -1696
WIRE -368 -1648 -560 -1648
WIRE -96 -1648 -288 -1648
WIRE 0 -1648 -48 -1648
WIRE -944 -1568 -1200 -1568
WIRE -112 -1568 -864 -1568
WIRE 176 -1568 176 -1824
WIRE 176 -1568 -32 -1568
WIRE -368 -1520 -560 -1520
WIRE -96 -1520 -288 -1520
WIRE 0 -1520 0 -1648
WIRE 0 -1520 -48 -1520
WIRE -944 -1456 -1200 -1456
WIRE -112 -1456 -864 -1456
WIRE 224 -1456 224 -1824
WIRE 224 -1456 -32 -1456
WIRE -368 -1408 -560 -1408
WIRE -96 -1408 -288 -1408
WIRE 0 -1408 0 -1520
WIRE 0 -1408 -48 -1408
WIRE -944 -1328 -1200 -1328
WIRE -112 -1328 -864 -1328
WIRE 176 -1328 176 -1568
WIRE 176 -1328 -32 -1328
WIRE -368 -1280 -560 -1280
WIRE -96 -1280 -288 -1280
WIRE 0 -1280 0 -1408
WIRE 0 -1280 -48 -1280
WIRE -944 -1200 -1200 -1200
WIRE -112 -1200 -864 -1200
WIRE 128 -1200 128 -1696
WIRE 128 -1200 -32 -1200
WIRE -368 -1152 -560 -1152
WIRE -96 -1152 -288 -1152
WIRE 0 -1152 0 -1280
WIRE 0 -1152 -48 -1152
WIRE -944 -1072 -1200 -1072
WIRE -112 -1072 -864 -1072
WIRE 176 -1072 176 -1328
WIRE 176 -1072 -32 -1072
WIRE -368 -1024 -560 -1024
WIRE -96 -1024 -288 -1024
WIRE 0 -1024 0 -1152
WIRE 0 -1024 -48 -1024
WIRE -944 -960 -1200 -960
WIRE -112 -960 -864 -960
WIRE 224 -960 224 -1456
WIRE 224 -960 -32 -960
WIRE -368 -912 -560 -912
WIRE -96 -912 -288 -912
WIRE 0 -912 0 -1024
WIRE 0 -912 -48 -912
WIRE -944 -832 -1200 -832
WIRE -112 -832 -864 -832
WIRE 176 -832 176 -1072
WIRE 176 -832 -32 -832
WIRE -368 -784 -560 -784
WIRE -96 -784 -288 -784
WIRE 0 -784 0 -912
WIRE 0 -784 -48 -784
WIRE -944 -704 -1200 -704
WIRE -112 -704 -864 -704
WIRE 128 -704 128 -1200
WIRE 128 -704 -32 -704
WIRE -368 -656 -560 -656
WIRE -96 -656 -288 -656
WIRE 0 -656 0 -784
WIRE 0 -656 -48 -656
WIRE -944 -576 -1200 -576
WIRE -112 -576 -864 -576
WIRE 176 -576 176 -832
WIRE 176 -576 -32 -576
WIRE -368 -528 -560 -528
WIRE -96 -528 -288 -528
WIRE 0 -528 0 -656
WIRE 0 -528 -48 -528
WIRE -944 -448 -1200 -448
WIRE -112 -448 -864 -448
WIRE 224 -448 224 -960
WIRE 224 -448 -32 -448
WIRE -368 -400 -560 -400
WIRE -96 -400 -288 -400
WIRE 0 -400 0 -528
WIRE 0 -400 -48 -400
WIRE -944 -320 -1200 -320
WIRE -112 -320 -864 -320
WIRE 176 -320 176 -576
WIRE 176 -320 -32 -320
WIRE -368 -272 -560 -272
WIRE -96 -272 -288 -272
WIRE 0 -272 0 -400
WIRE 0 -272 -48 -272
WIRE -944 -192 -1200 -192
WIRE -112 -192 -864 -192
WIRE 128 -192 128 -704
WIRE 128 -192 -32 -192
WIRE -368 -144 -560 -144
WIRE -96 -144 -288 -144
WIRE 0 -144 0 -272
WIRE 0 -144 -48 -144
WIRE -944 -64 -1200 -64
WIRE -112 -64 -864 -64
WIRE 176 -64 176 -320
WIRE 176 -64 -32 -64
WIRE -368 -16 -560 -16
WIRE -96 -16 -288 -16
WIRE 0 -16 0 -144
WIRE 0 -16 -48 -16
WIRE -944 48 -1200 48
WIRE -112 48 -864 48
WIRE 224 48 224 -448
WIRE 224 48 -32 48
WIRE -368 96 -560 96
WIRE -96 96 -288 96
WIRE 0 96 0 -16
WIRE 0 96 -48 96
WIRE -944 176 -1200 176
WIRE -112 176 -864 176
WIRE 176 176 176 -64
WIRE 176 176 -32 176
WIRE -368 224 -560 224
WIRE -96 224 -288 224
WIRE 0 224 0 96
WIRE 0 224 -48 224
WIRE -944 304 -1200 304
WIRE -112 304 -864 304
WIRE 128 304 128 -192
WIRE 128 304 -32 304
WIRE -368 352 -560 352
WIRE -96 352 -288 352
WIRE 0 352 0 224
WIRE 0 352 -48 352
WIRE -944 432 -1200 432
WIRE -112 432 -864 432
WIRE 176 432 176 176
WIRE 176 432 -32 432
WIRE -368 480 -560 480
WIRE -96 480 -288 480
WIRE 0 480 0 352
WIRE 0 480 -48 480
WIRE -944 560 -1200 560
WIRE -112 560 -864 560
WIRE 224 560 224 48
WIRE 224 560 -32 560
WIRE 368 560 224 560
WIRE -368 608 -560 608
WIRE -96 608 -288 608
WIRE 0 608 0 480
WIRE 0 608 -48 608
WIRE -944 688 -1200 688
WIRE -112 688 -864 688
WIRE 176 688 176 432
WIRE 176 688 -32 688
WIRE 368 688 176 688
WIRE -368 736 -560 736
WIRE -96 736 -288 736
WIRE 0 736 0 608
WIRE 0 736 -48 736
WIRE -944 816 -1200 816
WIRE -112 816 -864 816
WIRE 128 816 128 304
WIRE 128 816 -32 816
WIRE 368 816 128 816
WIRE -368 864 -560 864
WIRE -96 864 -288 864
WIRE 0 864 0 736
WIRE 0 864 -48 864
WIRE 0 992 0 864
FLAG 0 992 0
FLAG 368 560 CC
IOPIN 368 560 Out
FLAG 368 688 BB
IOPIN 368 688 Out
FLAG 368 816 AA
IOPIN 368 816 Out
FLAG -1200 816 L0
IOPIN -1200 816 In
FLAG -1200 688 L1
IOPIN -1200 688 In
FLAG -1200 560 L2
IOPIN -1200 560 In
FLAG -1200 432 L3
IOPIN -1200 432 In
FLAG -1200 304 L4
IOPIN -1200 304 In
FLAG -1200 176 L5
IOPIN -1200 176 In
FLAG -1200 48 L6
IOPIN -1200 48 In
FLAG -1200 -64 L7
IOPIN -1200 -64 In
FLAG -1200 -192 L8
IOPIN -1200 -192 In
FLAG -1200 -320 L9
IOPIN -1200 -320 In
FLAG -1200 -448 L10
IOPIN -1200 -448 In
FLAG -1200 -576 L11
IOPIN -1200 -576 In
FLAG -1200 -704 L12
IOPIN -1200 -704 In
FLAG -1200 -832 L13
IOPIN -1200 -832 In
FLAG -1200 -960 L14
IOPIN -1200 -960 In
FLAG -1200 -1072 L15
IOPIN -1200 -1072 In
FLAG -1200 -1200 L16
IOPIN -1200 -1200 In
FLAG -1200 -1328 L17
IOPIN -1200 -1328 In
FLAG -1200 -1456 L18
IOPIN -1200 -1456 In
FLAG -1200 -1568 L19
IOPIN -1200 -1568 In
FLAG -1200 -1696 L20
IOPIN -1200 -1696 In
FLAG -560 864 S0
IOPIN -560 864 In
FLAG -560 736 S1
IOPIN -560 736 In
FLAG -560 608 S2
IOPIN -560 608 In
FLAG -560 480 S3
IOPIN -560 480 In
FLAG -560 352 S4
IOPIN -560 352 In
FLAG -560 224 S5
IOPIN -560 224 In
FLAG -560 -272 S9
IOPIN -560 -272 In
FLAG -560 -400 S10
IOPIN -560 -400 In
FLAG -560 -528 S11
IOPIN -560 -528 In
FLAG -560 -656 S12
IOPIN -560 -656 In
FLAG -560 -784 S13
IOPIN -560 -784 In
FLAG -560 -912 S14
IOPIN -560 -912 In
FLAG -560 -1024 S15
IOPIN -560 -1024 In
FLAG -560 -1152 S16
IOPIN -560 -1152 In
FLAG -560 -1280 S17
IOPIN -560 -1280 In
FLAG -560 -1408 S18
IOPIN -560 -1408 In
FLAG -560 -1520 S19
IOPIN -560 -1520 In
FLAG -560 -1648 S20
IOPIN -560 -1648 In
FLAG -560 96 S6
IOPIN -560 96 In
FLAG -560 -16 S7
IOPIN -560 -16 In
FLAG -560 -144 S8
IOPIN -560 -144 In
SYMBOL sw -16 816 M270
SYMATTR InstName S1
SYMBOL sw -16 688 M270
SYMATTR InstName S2
SYMBOL sw -16 560 M270
SYMATTR InstName S3
SYMBOL sw -16 432 M270
SYMATTR InstName S4
SYMBOL sw -16 304 M270
SYMATTR InstName S5
SYMBOL sw -16 176 M270
SYMATTR InstName S6
SYMBOL sw -16 48 M270
SYMATTR InstName S7
SYMBOL sw -16 -64 M270
SYMATTR InstName S8
SYMBOL sw -16 -192 M270
SYMATTR InstName S9
SYMBOL sw -16 -320 M270
SYMATTR InstName S10
SYMBOL sw -16 -448 M270
SYMATTR InstName S11
SYMBOL sw -16 -576 M270
SYMATTR InstName S12
SYMBOL sw -16 -704 M270
SYMATTR InstName S13
SYMBOL sw -16 -832 M270
SYMATTR InstName S14
SYMBOL sw -16 -960 M270
SYMATTR InstName S15
SYMBOL sw -16 -1072 M270
SYMATTR InstName S16
SYMBOL sw -16 -1200 M270
SYMATTR InstName S17
SYMBOL sw -16 -1328 M270
SYMATTR InstName S18
SYMBOL sw -16 -1456 M270
SYMATTR InstName S19
SYMBOL sw -16 -1568 M270
SYMATTR InstName S20
SYMBOL sw -16 -1696 M270
SYMATTR InstName S21
SYMBOL res -848 800 R90
WINDOW 0 0 56 VBottom 2
WINDOW 3 32 56 VTop 2
SYMATTR InstName R1
SYMATTR Value {Raa}
SYMBOL res -848 672 R90
WINDOW 0 0 56 VBottom 2
WINDOW 3 32 56 VTop 2
SYMATTR InstName R2
SYMATTR Value {Rbb}
SYMBOL res -848 544 R90
WINDOW 0 0 56 VBottom 2
WINDOW 3 32 56 VTop 2
SYMATTR InstName R3
SYMATTR Value {Rcc}
SYMBOL res -848 416 R90
WINDOW 0 0 56 VBottom 2
WINDOW 3 32 56 VTop 2
SYMATTR InstName R5
SYMATTR Value {Rbb}
SYMBOL res -848 288 R90
WINDOW 0 0 56 VBottom 2
WINDOW 3 32 56 VTop 2
SYMATTR InstName R6
SYMATTR Value {Raa}
SYMBOL res -848 160 R90
WINDOW 0 0 56 VBottom 2
WINDOW 3 32 56 VTop 2
SYMATTR InstName R7
SYMATTR Value {Rbb}
SYMBOL res -848 32 R90
WINDOW 0 0 56 VBottom 2
WINDOW 3 32 56 VTop 2
SYMATTR InstName R8
SYMATTR Value {Rcc}
SYMBOL res -848 -80 R90
WINDOW 0 0 56 VBottom 2
WINDOW 3 32 56 VTop 2
SYMATTR InstName R9
SYMATTR Value {Rbb}
SYMBOL res -848 -208 R90
WINDOW 0 0 56 VBottom 2
WINDOW 3 32 56 VTop 2
SYMATTR InstName R10
SYMATTR Value {Raa}
SYMBOL res -848 -336 R90
WINDOW 0 0 56 VBottom 2
WINDOW 3 32 56 VTop 2
SYMATTR InstName R11
SYMATTR Value {Rbb}
SYMBOL res -848 -464 R90
WINDOW 0 0 56 VBottom 2
WINDOW 3 32 56 VTop 2
SYMATTR InstName R12
SYMATTR Value {Rcc}
SYMBOL res -848 -592 R90
WINDOW 0 0 56 VBottom 2
WINDOW 3 32 56 VTop 2
SYMATTR InstName R13
SYMATTR Value {Rbb}
SYMBOL res -848 -720 R90
WINDOW 0 0 56 VBottom 2
WINDOW 3 32 56 VTop 2
SYMATTR InstName R14
SYMATTR Value {Raa}
SYMBOL res -848 -848 R90
WINDOW 0 0 56 VBottom 2
WINDOW 3 32 56 VTop 2
SYMATTR InstName R15
SYMATTR Value {Rbb}
SYMBOL res -848 -976 R90
WINDOW 0 0 56 VBottom 2
WINDOW 3 32 56 VTop 2
SYMATTR InstName R16
SYMATTR Value {Rcc}
SYMBOL res -848 -1088 R90
WINDOW 0 0 56 VBottom 2
WINDOW 3 32 56 VTop 2
SYMATTR InstName R17
SYMATTR Value {Rbb}
SYMBOL res -848 -1216 R90
WINDOW 0 0 56 VBottom 2
WINDOW 3 32 56 VTop 2
SYMATTR InstName R18
SYMATTR Value {Raa}
SYMBOL res -848 -1344 R90
WINDOW 0 0 56 VBottom 2
WINDOW 3 32 56 VTop 2
SYMATTR InstName R19
SYMATTR Value {Rbb}
SYMBOL res -848 -1472 R90
WINDOW 0 0 56 VBottom 2
WINDOW 3 32 56 VTop 2
SYMATTR InstName R20
SYMATTR Value {Rcc}
SYMBOL res -848 -1584 R90
WINDOW 0 0 56 VBottom 2
WINDOW 3 32 56 VTop 2
SYMATTR InstName R21
SYMATTR Value {Rbb}
SYMBOL res -848 -1712 R90
WINDOW 0 0 56 VBottom 2
WINDOW 3 32 56 VTop 2
SYMATTR InstName R22
SYMATTR Value {Raa}
SYMBOL voltage -272 -1648 R90
WINDOW 0 -32 56 VBottom 2
WINDOW 3 32 56 VTop 2
WINDOW 123 0 0 Left 0
WINDOW 39 0 0 Left 0
SYMATTR InstName V1
SYMATTR Value 0.1
SYMBOL voltage -272 -1520 R90
WINDOW 0 -32 56 VBottom 2
WINDOW 3 32 56 VTop 2
WINDOW 123 0 0 Left 0
WINDOW 39 0 0 Left 0
SYMATTR InstName V2
SYMATTR Value 0.09
SYMBOL voltage -272 -1408 R90
WINDOW 0 -32 56 VBottom 2
WINDOW 3 32 56 VTop 2
WINDOW 123 0 0 Left 0
WINDOW 39 0 0 Left 0
SYMATTR InstName V3
SYMATTR Value 0.08
SYMBOL voltage -272 -1280 R90
WINDOW 0 -32 56 VBottom 2
WINDOW 3 32 56 VTop 2
WINDOW 123 0 0 Left 0
WINDOW 39 0 0 Left 0
SYMATTR InstName V4
SYMATTR Value 0.07
SYMBOL voltage -272 -1152 R90
WINDOW 0 -32 56 VBottom 2
WINDOW 3 32 56 VTop 2
WINDOW 123 0 0 Left 0
WINDOW 39 0 0 Left 0
SYMATTR InstName V5
SYMATTR Value 0.06
SYMBOL voltage -272 -1024 R90
WINDOW 0 -32 56 VBottom 2
WINDOW 3 32 56 VTop 2
WINDOW 123 0 0 Left 0
WINDOW 39 0 0 Left 0
SYMATTR InstName V6
SYMATTR Value 0.05
SYMBOL voltage -272 -912 R90
WINDOW 0 -32 56 VBottom 2
WINDOW 3 32 56 VTop 2
WINDOW 123 0 0 Left 0
WINDOW 39 0 0 Left 0
SYMATTR InstName V7
SYMATTR Value 0.05
SYMBOL voltage -272 -784 R90
WINDOW 0 -32 56 VBottom 2
WINDOW 3 32 56 VTop 2
WINDOW 123 0 0 Left 0
WINDOW 39 0 0 Left 0
SYMATTR InstName V8
SYMATTR Value 0.04
SYMBOL voltage -272 -656 R90
WINDOW 0 -32 56 VBottom 2
WINDOW 3 32 56 VTop 2
WINDOW 123 0 0 Left 0
WINDOW 39 0 0 Left 0
SYMATTR InstName V9
SYMATTR Value 0.03
SYMBOL voltage -272 -528 R90
WINDOW 0 -32 56 VBottom 2
WINDOW 3 32 56 VTop 2
WINDOW 123 0 0 Left 0
WINDOW 39 0 0 Left 0
SYMATTR InstName V10
SYMATTR Value 0.02
SYMBOL voltage -272 -400 R90
WINDOW 0 -32 56 VBottom 2
WINDOW 3 32 56 VTop 2
WINDOW 123 0 0 Left 0
WINDOW 39 0 0 Left 0
SYMATTR InstName V11
SYMATTR Value 0.01
SYMBOL voltage -272 -272 R90
WINDOW 0 -32 56 VBottom 2
WINDOW 3 32 56 VTop 2
WINDOW 123 0 0 Left 0
WINDOW 39 0 0 Left 0
SYMATTR InstName V12
SYMATTR Value 0
SYMBOL voltage -272 -144 R90
WINDOW 0 -32 56 VBottom 2
WINDOW 3 32 56 VTop 2
WINDOW 123 0 0 Left 0
WINDOW 39 0 0 Left 0
SYMATTR InstName V13
SYMATTR Value -0.01
SYMBOL voltage -272 -16 R90
WINDOW 0 -32 56 VBottom 2
WINDOW 3 32 56 VTop 2
WINDOW 123 0 0 Left 0
WINDOW 39 0 0 Left 0
SYMATTR InstName V14
SYMATTR Value -0.02
SYMBOL voltage -272 96 R90
WINDOW 0 -32 56 VBottom 2
WINDOW 3 32 56 VTop 2
WINDOW 123 0 0 Left 0
WINDOW 39 0 0 Left 0
SYMATTR InstName V15
SYMATTR Value -0.03
SYMBOL voltage -272 224 R90
WINDOW 0 -32 56 VBottom 2
WINDOW 3 32 56 VTop 2
WINDOW 123 0 0 Left 0
WINDOW 39 0 0 Left 0
SYMATTR InstName V16
SYMATTR Value -0.04
SYMBOL voltage -272 352 R90
WINDOW 0 -32 56 VBottom 2
WINDOW 3 32 56 VTop 2
WINDOW 123 0 0 Left 0
WINDOW 39 0 0 Left 0
SYMATTR InstName V17
SYMATTR Value -0.05
SYMBOL voltage -272 480 R90
WINDOW 0 -32 56 VBottom 2
WINDOW 3 32 56 VTop 2
WINDOW 123 0 0 Left 0
WINDOW 39 0 0 Left 0
SYMATTR InstName V18
SYMATTR Value -0.06
SYMBOL voltage -272 608 R90
WINDOW 0 -32 56 VBottom 2
WINDOW 3 32 56 VTop 2
WINDOW 123 0 0 Left 0
WINDOW 39 0 0 Left 0
SYMATTR InstName V19
SYMATTR Value -0.08
SYMBOL voltage -272 736 R90
WINDOW 0 -32 56 VBottom 2
WINDOW 3 32 56 VTop 2
WINDOW 123 0 0 Left 0
WINDOW 39 0 0 Left 0
SYMATTR InstName V20
SYMATTR Value -0.09
SYMBOL voltage -272 864 R90
WINDOW 0 -32 56 VBottom 2
WINDOW 3 32 56 VTop 2
WINDOW 123 0 0 Left 0
WINDOW 39 0 0 Left 0
SYMATTR InstName V21
SYMATTR Value -0.1
TEXT -1888 648 Left 2 !.param Raa=1k Rbb=0.5k Rcc=1k
TEXT -1888 624 Left 2 !.model SW SW(Ron=1m,Roff=1000G,VT=0.5)
TEXT -736 960 Left 2 ;to stabilize simulation, SW thresholds are biased unevenly.
