Version 4
SHEET 1 880 680
WIRE 288 -48 -80 -48
WIRE 496 -48 368 -48
WIRE 80 0 -16 0
WIRE 304 0 160 0
WIRE 416 0 352 0
WIRE 288 80 -80 80
WIRE 496 80 368 80
WIRE -16 128 -16 0
WIRE 80 128 -16 128
WIRE 304 128 160 128
WIRE 416 128 416 0
WIRE 416 128 352 128
WIRE 288 208 -80 208
WIRE 496 208 368 208
WIRE -16 256 -16 128
WIRE 80 256 -16 256
WIRE 304 256 160 256
WIRE 416 256 416 128
WIRE 416 256 352 256
WIRE -16 352 -16 256
WIRE -16 352 -80 352
WIRE 416 368 416 256
FLAG -80 208 AA_H
IOPIN -80 208 In
FLAG -80 80 BB_H
IOPIN -80 80 In
FLAG -80 -48 CC_H
IOPIN -80 -48 In
FLAG 496 208 AA_L
IOPIN 496 208 Out
FLAG 496 80 BB_L
IOPIN 496 80 Out
FLAG 496 -48 CC_L
IOPIN 496 -48 Out
FLAG 416 368 0
FLAG -80 352 ENABLE
IOPIN -80 352 In
SYMBOL sw 384 208 M270
SYMATTR InstName S1
SYMBOL sw 384 80 M270
SYMATTR InstName S2
SYMBOL sw 384 -48 M270
SYMATTR InstName S3
SYMBOL voltage 176 256 R90
WINDOW 0 -32 56 VBottom 2
WINDOW 3 32 56 VTop 2
WINDOW 123 0 0 Left 0
WINDOW 39 0 0 Left 0
SYMATTR InstName V1
SYMATTR Value -0.1
SYMBOL voltage 176 128 R90
WINDOW 0 -32 56 VBottom 2
WINDOW 3 32 56 VTop 2
WINDOW 123 0 0 Left 0
WINDOW 39 0 0 Left 0
SYMATTR InstName V2
SYMATTR Value 0
SYMBOL voltage 176 0 R90
WINDOW 0 -32 56 VBottom 2
WINDOW 3 32 56 VTop 2
WINDOW 123 0 0 Left 0
WINDOW 39 0 0 Left 0
SYMATTR InstName V3
SYMATTR Value 0.1
TEXT -520 -192 Left 2 !.model SW SW(Ron=100,Roff=1000G,VT=0.5)
