Version 4
SHEET 1 880 680
WIRE 48 -48 -80 -48
WIRE 256 -48 128 -48
WIRE 64 0 -16 0
WIRE 176 0 112 0
WIRE 48 80 -80 80
WIRE 256 80 128 80
WIRE -16 128 -16 0
WIRE 64 128 -16 128
WIRE 176 128 176 0
WIRE 176 128 112 128
WIRE 48 208 -80 208
WIRE 256 208 128 208
WIRE -16 256 -16 128
WIRE 64 256 -16 256
WIRE 176 256 176 128
WIRE 176 256 112 256
WIRE -16 352 -16 256
WIRE -16 352 -80 352
WIRE 176 368 176 256
FLAG -80 208 AA_H
IOPIN -80 208 In
FLAG -80 80 BB_H
IOPIN -80 80 In
FLAG -80 -48 CC_H
IOPIN -80 -48 In
FLAG 256 208 AA_L
IOPIN 256 208 Out
FLAG 256 80 BB_L
IOPIN 256 80 Out
FLAG 256 -48 CC_L
IOPIN 256 -48 Out
FLAG 176 368 0
FLAG -80 352 ENABLE
IOPIN -80 352 In
SYMBOL sw 144 208 M270
SYMATTR InstName S1
SYMBOL sw 144 80 M270
SYMATTR InstName S2
SYMBOL sw 144 -48 M270
SYMATTR InstName S3
TEXT -520 -192 Left 2 !.model SW SW(Ron=100,Roff=1000G,VT=0.5)
