Version 4
SHEET 1 1332 980
WIRE 752 -560 224 -560
WIRE 304 -448 304 -480
WIRE 224 -400 224 -560
WIRE 272 -400 224 -400
WIRE 528 -368 416 -368
WIRE 720 -368 528 -368
WIRE 272 -336 160 -336
WIRE 528 -304 528 -368
WIRE 528 -304 464 -304
WIRE 592 -304 528 -304
WIRE 304 -272 304 -288
WIRE 352 -272 352 -288
WIRE 352 -272 304 -272
WIRE 464 -272 464 -304
WIRE 592 -272 592 -304
WIRE 752 -256 752 -560
WIRE 816 -256 752 -256
WIRE 880 -256 816 -256
WIRE 304 -240 304 -272
WIRE 720 -192 720 -368
WIRE 816 -192 720 -192
WIRE 880 -192 816 -192
WIRE 464 -160 464 -192
WIRE 528 -160 464 -160
WIRE 592 -160 592 -208
WIRE 592 -160 528 -160
WIRE 528 -144 528 -160
WIRE 880 -96 720 -96
WIRE 1120 -96 1040 -96
WIRE -496 -32 -496 -96
WIRE 880 -32 752 -32
WIRE 1120 -32 1040 -32
WIRE 720 -16 720 -96
WIRE 720 -16 224 -16
WIRE 304 96 304 64
WIRE -720 128 -720 64
WIRE -496 128 -496 48
WIRE 224 144 224 -16
WIRE 272 144 224 144
WIRE 528 176 416 176
WIRE 752 176 752 -32
WIRE 752 176 528 176
WIRE 272 208 160 208
WIRE 528 240 528 176
WIRE 528 240 464 240
WIRE 592 240 528 240
WIRE -720 272 -720 208
WIRE -496 272 -496 208
WIRE 304 272 304 256
WIRE 352 272 352 256
WIRE 352 272 304 272
WIRE 464 272 464 240
WIRE 592 272 592 240
WIRE 304 304 304 272
WIRE 464 384 464 352
WIRE 528 384 464 384
WIRE 592 384 592 336
WIRE 592 384 528 384
WIRE 528 400 528 384
FLAG -496 -96 Vin
FLAG -496 272 0
FLAG 1120 -96 IX
FLAG 1120 -32 IY
FLAG 816 -256 VX
FLAG 816 -192 VY
FLAG 304 -240 0
FLAG 304 -480 Vdd
FLAG 160 -336 Vin
FLAG -720 64 Vdd
FLAG -720 272 0
FLAG 304 304 0
FLAG 304 64 Vdd
FLAG 160 208 Vin
FLAG 528 400 0
FLAG 528 -144 0
SYMBOL voltage -496 -48 R0
WINDOW 123 24 120 Left 2
WINDOW 39 0 0 Left 2
SYMATTR InstName V2
SYMATTR Value PULSE(0 1 0.5m 1n 1n 1m 2m)
SYMBOL MiddleBrook 960 -192 R0
SYMATTR InstName U2
SYMBOL Opamps\\LT1637 304 -368 R0
SYMATTR InstName U4
SYMBOL voltage -720 112 R0
WINDOW 123 24 120 Left 2
WINDOW 39 0 0 Left 2
SYMATTR InstName V3
SYMATTR Value 5
SYMBOL Opamps\\LT1637 304 176 R0
SYMATTR InstName U1
SYMBOL voltage -496 112 R0
WINDOW 123 24 120 Left 2
WINDOW 39 0 0 Left 2
SYMATTR InstName V1
SYMATTR Value 2
SYMBOL res 448 256 R0
SYMATTR InstName R1
SYMATTR Value {RL}
SYMBOL cap 576 272 R0
SYMATTR InstName C1
SYMATTR Value {CL}
SYMBOL res 448 -288 R0
SYMATTR InstName R2
SYMATTR Value {RL}
SYMBOL cap 576 -272 R0
SYMATTR InstName C2
SYMATTR Value {CL}
TEXT -464 408 Left 2 !.ac dec 1000 10 1meg
TEXT -464 344 Left 2 !.lib Middlebrook.sub
TEXT -96 -344 Left 2 !;tran 0 2m 0 10n
TEXT -600 -360 Left 2 !.param RL 10k\n.step param CL list 0.001u 0.01u 0.1u 1u
