Version 4
SHEET 1 2276 3496
WIRE -2032 -64 -2336 -64
WIRE -2032 -32 -2336 -32
WIRE -2032 0 -2336 0
WIRE -2032 32 -2336 32
WIRE -2032 64 -2336 64
WIRE -2032 96 -2336 96
WIRE -2032 128 -2336 128
WIRE -2032 160 -2336 160
WIRE -2032 192 -2336 192
WIRE -2032 224 -2336 224
WIRE -2032 256 -2336 256
WIRE -2032 288 -2336 288
WIRE -2032 320 -2336 320
WIRE -2032 352 -2336 352
WIRE -2032 384 -2336 384
WIRE -2032 416 -2336 416
WIRE -2032 448 -2336 448
WIRE -2032 480 -2336 480
WIRE -48 496 -48 432
WIRE -2032 512 -2336 512
WIRE -2032 544 -2336 544
WIRE -1680 544 -1792 544
WIRE -1488 544 -1680 544
WIRE -1280 544 -1488 544
WIRE -1040 544 -1088 544
WIRE -880 544 -1040 544
WIRE -2032 576 -2336 576
WIRE -1488 576 -1488 544
WIRE -128 576 -288 576
WIRE 208 592 32 592
WIRE -128 608 -288 608
WIRE -1680 672 -1792 672
WIRE -1488 672 -1488 640
WIRE -1488 672 -1680 672
WIRE -1280 672 -1488 672
WIRE -992 672 -1088 672
WIRE -880 672 -992 672
WIRE -128 672 -416 672
WIRE -624 688 -752 688
WIRE -544 688 -624 688
WIRE -1488 704 -1488 672
WIRE -128 704 -416 704
WIRE 704 736 704 592
WIRE -2176 768 -2336 768
WIRE -2032 768 -2176 768
WIRE -2176 800 -2336 800
WIRE -2032 800 -2176 800
WIRE -1680 800 -1792 800
WIRE -1488 800 -1488 768
WIRE -1488 800 -1680 800
WIRE -1280 800 -1488 800
WIRE -928 800 -1088 800
WIRE -880 800 -928 800
WIRE -2176 832 -2336 832
WIRE -2032 832 -2176 832
WIRE -48 832 -48 768
WIRE -2176 864 -2336 864
WIRE -2032 864 -2176 864
WIRE -2176 896 -2336 896
WIRE -2032 896 -2176 896
WIRE -2176 928 -2336 928
WIRE -2032 928 -2176 928
WIRE 704 928 704 816
WIRE -2176 960 -2336 960
WIRE -2032 960 -2176 960
WIRE -2176 992 -2336 992
WIRE -2032 992 -2176 992
WIRE -2176 1024 -2336 1024
WIRE -2032 1024 -2176 1024
WIRE -48 1024 -48 960
WIRE -2176 1056 -2336 1056
WIRE -2032 1056 -2176 1056
WIRE -1040 1072 -1040 544
WIRE -992 1072 -992 672
WIRE -928 1072 -928 800
WIRE -2176 1088 -2336 1088
WIRE -2032 1088 -2176 1088
WIRE -128 1104 -256 1104
WIRE -2176 1120 -2336 1120
WIRE -2032 1120 -2176 1120
WIRE 208 1120 32 1120
WIRE -128 1136 -256 1136
WIRE -2176 1152 -2336 1152
WIRE -2032 1152 -2176 1152
WIRE -2176 1184 -2336 1184
WIRE -2032 1184 -2176 1184
WIRE -1040 1200 -1040 1152
WIRE -992 1200 -992 1152
WIRE -928 1200 -928 1152
WIRE -128 1200 -416 1200
WIRE -2176 1216 -2336 1216
WIRE -2032 1216 -2176 1216
WIRE -624 1216 -624 688
WIRE -544 1216 -624 1216
WIRE -128 1232 -416 1232
WIRE -2176 1248 -2336 1248
WIRE -2032 1248 -2176 1248
WIRE -2176 1280 -2336 1280
WIRE -2032 1280 -2176 1280
WIRE -2176 1312 -2336 1312
WIRE -2032 1312 -2176 1312
WIRE -2560 1344 -2864 1344
WIRE -2176 1344 -2336 1344
WIRE -2032 1344 -2176 1344
WIRE -48 1360 -48 1296
WIRE -2560 1376 -2864 1376
WIRE -2176 1376 -2336 1376
WIRE -2032 1376 -2176 1376
WIRE -2720 1408 -2864 1408
WIRE -2560 1408 -2720 1408
WIRE -2176 1408 -2336 1408
WIRE -2032 1408 -2176 1408
WIRE -1184 1488 -1184 864
WIRE -1184 1488 -2864 1488
WIRE -48 1568 -48 1504
WIRE -128 1648 -256 1648
WIRE 208 1664 32 1664
WIRE -128 1680 -256 1680
WIRE -128 1744 -416 1744
WIRE -624 1760 -624 1216
WIRE -544 1760 -624 1760
WIRE -128 1776 -416 1776
WIRE -48 1904 -48 1840
FLAG -880 544 CC
FLAG -880 672 BB
FLAG -880 800 AA
FLAG -2176 1408 S0
FLAG -2176 1376 S1
FLAG -2176 1344 S2
FLAG -2176 1312 S3
FLAG -2176 1280 S4
FLAG -2176 1248 S5
FLAG -2176 1120 S9
FLAG -2176 1088 S10
FLAG -2176 1056 S11
FLAG -2176 1024 S12
FLAG -2176 992 S13
FLAG -2176 960 S14
FLAG -2176 928 S15
FLAG -2176 896 S16
FLAG -2176 864 S17
FLAG -2176 832 S18
FLAG -2176 800 S19
FLAG -2176 768 S20
FLAG -2176 1216 S6
FLAG -2176 1184 S7
FLAG -2176 1152 S8
FLAG 704 928 0
FLAG -48 832 0
FLAG -48 1360 0
FLAG -288 608 CC
FLAG -256 1104 BB
FLAG -256 1136 AA
FLAG -288 576 BB
FLAG -48 1904 0
FLAG -48 1504 VOM
FLAG -256 1648 CC
FLAG -256 1680 AA
FLAG -2720 1408 SEL
FLAG -752 688 SEL
FLAG 208 1120 VA
FLAG 208 592 VB
FLAG 208 1664 VC
FLAG -48 960 VOM
FLAG -48 432 VOM
FLAG 704 592 VOM
FLAG -928 1200 0
FLAG -1680 544 CC_H
FLAG -1680 672 BB_H
FLAG -1680 800 AA_H
FLAG -992 1200 0
FLAG -1040 1200 0
SYMBOL cap -1504 576 R0
SYMATTR InstName C1
SYMATTR Value 0.1u
SYMBOL cap -1504 704 R0
SYMATTR InstName 0.1u
SYMATTR Value 0.1u
SYMBOL Scheduler -2992 1360 R0
WINDOW 0 0 -40 Bottom 2
SYMATTR InstName X1
SYMBOL Selector -2448 1088 R0
SYMATTR InstName X2
SYMBOL HighSide -1920 672 R0
WINDOW 0 8 -696 Bottom 2
SYMATTR InstName X3
SYMBOL BatStack -2384 256 R0
SYMATTR InstName X4
SYMBOL voltage 704 720 R0
WINDOW 123 0 0 Left 0
WINDOW 39 0 0 Left 0
SYMATTR InstName V1
SYMATTR Value 5V
SYMBOL EvenOdd -480 1216 M180
SYMATTR InstName X6
SYMBOL EvenOdd -480 688 R0
SYMATTR InstName X8
SYMBOL EvenOdd -480 1760 M180
SYMATTR InstName X9
SYMBOL DiffAmp -48 592 R0
SYMATTR InstName X11
SYMATTR SpiceLine R1=5meg, R2=1meg
SYMBOL DiffAmp -48 1664 R0
SYMATTR InstName X7
SYMATTR SpiceLine R1=10meg, R2=1meg
SYMBOL LowSide -1184 656 R0
WINDOW 0 0 -72 Bottom 2
SYMATTR InstName X10
SYMBOL res -944 1056 R0
SYMATTR InstName R1
SYMATTR Value 1g
SYMBOL res -1008 1056 R0
SYMATTR InstName R2
SYMATTR Value 1g
SYMBOL res -1056 1056 R0
SYMATTR InstName R3
SYMATTR Value 1g
SYMBOL DiffAmp -48 1120 R0
SYMATTR InstName X5
SYMATTR SpiceLine R1=5meg, R2=1meg
TEXT -2992 1208 Left 2 !.tran 0 100m 0 1m
TEXT -2992 1232 Left 2 !.ic V(CC_H,BB_H)=0 V(BB_H,AA_H)=0
