Version 4
SHEET 1 1560 680
WIRE 400 -368 -48 -368
WIRE 672 -368 608 -368
WIRE 400 -336 288 -336
WIRE 656 -336 608 -336
WIRE 1504 -304 608 -304
WIRE 1440 -272 608 -272
WIRE 1360 -240 608 -240
WIRE 1296 -208 608 -208
WIRE 1232 -176 608 -176
WIRE 1168 -144 608 -144
WIRE 1088 -112 608 -112
WIRE 1024 -80 608 -80
WIRE 1024 16 1024 -80
WIRE 1088 16 1088 -112
WIRE 1168 16 1168 -144
WIRE 1232 16 1232 -176
WIRE 1296 16 1296 -208
WIRE 1360 16 1360 -240
WIRE 1440 16 1440 -272
WIRE 1504 16 1504 -304
WIRE -48 48 -48 -368
WIRE 400 48 -48 48
WIRE 720 48 592 48
WIRE 288 80 288 -336
WIRE 400 80 288 80
WIRE 1024 144 1024 96
WIRE 1088 144 1088 96
WIRE 1168 144 1168 96
WIRE 1232 144 1232 96
WIRE 1296 144 1296 96
WIRE 1360 144 1360 96
WIRE 1440 144 1440 96
WIRE 1504 144 1504 96
WIRE -48 176 -48 48
WIRE 400 176 -48 176
WIRE 720 176 592 176
WIRE 288 208 288 80
WIRE 288 208 208 208
WIRE 400 208 288 208
WIRE -48 224 -48 176
WIRE -560 304 -608 304
WIRE -608 352 -608 304
WIRE -48 352 -48 304
FLAG -48 352 0
FLAG 720 176 Y1
FLAG 720 48 Y2
FLAG -608 352 0
FLAG 672 -368 a
FLAG 1232 144 0
FLAG 1168 144 0
FLAG 1088 144 0
FLAG 1024 144 0
FLAG 1504 144 0
FLAG 1440 144 0
FLAG 1360 144 0
FLAG 1296 144 0
SYMBOL voltage -48 208 R0
WINDOW 123 0 0 Left 2
WINDOW 39 0 0 Left 2
SYMATTR InstName V1
SYMATTR Value PULSE(0 10 0 1 1 0 2)
SYMBOL res 1216 0 R0
SYMATTR InstName R1
SYMATTR Value 10
SYMBOL res 1152 0 R0
SYMATTR InstName R2
SYMATTR Value 10
SYMBOL res 1072 0 R0
SYMATTR InstName R3
SYMATTR Value 10
SYMBOL res 1008 0 R0
SYMATTR InstName R4
SYMATTR Value 10
SYMBOL res 1488 0 R0
SYMATTR InstName R5
SYMATTR Value 10
SYMBOL res 1424 0 R0
SYMATTR InstName R6
SYMATTR Value 10
SYMBOL res 1344 0 R0
SYMATTR InstName R7
SYMATTR Value 10
SYMBOL res 1280 0 R0
SYMATTR InstName R8
SYMATTR Value 10
SYMBOL decoder-on 160 208 R0
SYMATTR InstName U9
SYMBOL decoder-10ch 496 -224 R0
SYMATTR InstName U1
SYMBOL decoder-element 496 64 R0
SYMATTR InstName U2
SYMBOL decoder-element 496 192 R0
SYMATTR InstName U3
TEXT -80 376 Left 2 !.tran 0 2 0 1m
TEXT -696 272 Left 2 ;Dummy component to include selector.sub
